[TITLE]
L-TOWN (v1.2) was developed by KIOS Research and Innovation Center of Excellence for the BattLeDIM 2020 competition


[JUNCTIONS]
;id elevation demand demandpattern
n46 38.8781 0.020974890020000005 P-Residential 
 n47 38.7028 0.04266034128 P-Residential 
 n48 40.1135 0.06016298130000001 P-Residential 
 n49 34.8665 0.028958565000000002 P-Residential 
 n50 44.7174 0.11040116098000001 P-Residential 
 n51 29.8508 0.08393900484000001 P-Residential 
 n52 33.2106 0.0131612164 P-Residential 
 n53 29.1285 0.07760589862 P-Residential 
 n54 36.6718 0.025839373380000006 P-Residential ; PRESSURE SENSOR 
 n55 43.7044 0.07712783924000001 P-Residential 
 n56 32.7019 0.09088489374000001 P-Residential 
 n57 34.5788 0.019679046320000004 P-Residential 
 n58 30.1017 0.0447100799 P-Residential 
 n59 40.544 0.0360544551 P-Residential 
 n60 36.5477 0.023916024660000004 P-Residential 
 n61 36.5714 0.00747561536 P-Residential 
 n62 35.96 0.021440171520000002 P-Residential 
 n63 37.0071 0.04660759508 P-Residential 
 n64 34.9234 0.04476146920000001 P-Residential 
 n65 36.2244 0.012616212040000001 P-Residential 
 n66 34.276 0.020060438260000004 P-Residential 
 n67 32.5016 0.11058477356000002 P-Residential 
 n68 41.0943 0.048401220540000005 P-Residential 
 n69 27.7774 0.10988476796 P-Residential 
 n70 29.8554 0.05193708216 P-Residential 
 n71 30.0823 0.06126826792000001 P-Residential 
 n72 34.4673 0.0057031011800000005 P-Residential 
 n73 33.0899 0.00847590114 P-Residential 
 n74 32.3582 0.012423988280000001 P-Residential 
 n75 40.1001 0.007215057720000001 P-Residential 
 n76 30.5603 0.027320774120000002 P-Residential 
 n77 33.9737 0.00870923634 P-Residential 
 n78 29.2383 0.02535825842 P-Residential 
 n79 32.7267 0.049544007460000004 P-Residential 
 n80 27.7113 0.07438809510000001 P-Residential 
 n81 31.0269 0.051482356300000004 P-Residential 
 n82 39.6884 0.051584579340000006 P-Residential 
 n83 35.7824 0.04180144552000001 P-Residential 
 n84 28.8092 0.04300673294 P-Residential 
 n85 38.6811 0.00032111368 P-Residential 
 n86 38.1149 0.05089901830000001 P-Residential 
 n87 35.2466 0.00168029122 P-Residential 
 n88 34.2301 0.0231321295 P-Residential 
 n89 31.7913 0.004586147800000001 P-Residential 
 n90 36.3955 0.029178844540000002 P-Residential 
 n91 33.0649 0.0036344735200000006 P-Residential 
 n92 33.1049 0.00438031282 P-Residential 
 n93 29.3998 0.04237283898000001 P-Residential 
 n94 27.5188 0.13595303206 P-Residential 
 n95 25.4416 0.0 P-Residential 
 n96 24.1924 0.040379211920000005 P-Residential 
 n97 27.2125 0.11243312168000001 P-Residential 
 n98 25.5648 0.031729142720000006 P-Residential 
 n99 23.3478 0.04565508746000001 P-Residential 
 n100 25.0658 0.10927615198000001 P-Residential 
 n101 24.157 0.0316877535 P-Residential 
 n102 23.6941 0.027680221440000003 P-Residential 
 n103 24.3635 0.02301851748 P-Residential 
 n104 20.9592 0.0 P-Residential 
 n105 24.022 0.00035583618000000004 P-Residential ; PRESSURE SENSOR 
 n106 23.5008 0.028300781960000004 P-Residential 
 n107 23.541 0.00018555704000000002 P-Residential 
 n108 19.8166 0.0 P-Residential 
 n109 23.4984 0.00016889024000000003 P-Residential 
 n110 23.8384 0.00811617604 P-Residential 
 n111 25.0 0.09998941102 P-Residential 
 n112 23.5656 0.030383020840000004 P-Residential 
 n113 23.6071 0.033282488480000004 P-Residential 
 n114 20.4764 0.02342852076 P-Residential ; PRESSURE SENSOR 
 n115 23.8321 0.00193418214 P-Residential 
 n116 20.911 0.05754351590000001 P-Residential 
 n117 26.9614 0.07654394568000002 P-Residential 
 n118 19.0993 0.0 P-Residential 
 n119 20.0895 0.07075417714000001 P-Residential 
 n120 22.6201 0.022134343740000003 P-Residential 
 n121 19.3967 7.194502e-05 P-Residential 
 n122 22.4946 0.025563815620000003 P-Residential 
 n123 21.5338 0.034367774940000005 P-Residential 
 n124 22.6501 0.0034155828800000003 P-Residential 
 n125 20.5899 0.01370455408 P-Residential 
 n126 19.167 0.06483440756 P-Residential 
 n127 19.1187 0.0016086239800000002 P-Residential 
 n128 22.0969 0.03112469344 P-Residential 
 n129 25.901 0.037601134140000006 P-Residential 
 n130 22.1732 0.05221402882 P-Residential 
 n131 19.552 0.032950541380000004 P-Residential 
 n132 20.3762 0.03397166066000001 P-Residential 
 n133 22.5783 0.08218760194000001 P-Residential 
 n134 19.2113 0.0025850206800000003 P-Residential 
 n135 19.1205 0.034422497600000004 P-Residential 
 n136 20.3013 0.09104072832 P-Residential 
 n137 19.6856 0.009406464140000001 P-Residential 
 n138 20.838 0.0075156156800000005 P-Residential 
 n139 19.6632 0.0 P-Residential 
 n140 27.3504 0.03262581656000001 P-Residential 
 n141 23.1252 0.06351550812000001 P-Residential 
 n142 19.6239 0.011932873240000003 P-Residential 
 n143 20.8754 0.031192749540000005 P-Residential 
 n144 26.9472 0.09480353620000001 P-Residential 
 n145 22.1344 0.038346417880000004 P-Residential 
 n146 21.8276 0.05041595888 P-Residential 
 n147 19.9725 0.041220051980000005 P-Residential 
 n148 20.1477 0.02121044746 P-Residential 
 n149 20.9496 0.015322622580000002 P-Residential 
 n150 22.6861 0.004408924160000001 P-Residential 
 n151 19.8447 0.00890923794 P-Residential 
 n152 19.1334 0.0 P-Residential 
 n153 22.6394 0.06480440732000001 P-Residential 
 n154 20.3582 0.0428531206 P-Residential 
 n155 26.3852 0.0250085334 P-Residential 
 n156 20.0619 0.00481781632 P-Residential 
 n157 20.4464 0.00806006448 P-Residential 
 n158 19.7472 0.0 P-Residential 
 n159 27.0053 0.043309513140000006 P-Residential 
 n160 20.2078 0.06299411506000001 P-Residential 
 n161 21.3197 0.0 P-Residential 
 n162 26.9729 0.0059611588000000005 P-Residential 
 n163 21.6096 0.013804277100000002 P-Residential ; PRESSURE SENSOR 
 n164 20.2745 0.04784566054000001 P-Residential 
 n165 19.8081 0.09828411960000001 P-Residential 
 n166 20.275 0.07074001036000001 P-Residential 
 n167 22.5413 0.03876169898 P-Residential 
 n168 20.4384 0.013675109400000001 P-Residential 
 n169 27.0181 0.01765791904 P-Residential 
 n170 23.2339 0.15725014688000002 P-Residential 
 n171 20.6067 0.06263161216 P-Residential 
 n172 19.1601 0.014484560320000003 P-Residential 
 n173 21.0596 0.04696370904 P-Residential 
 n174 21.4292 0.0 P-Residential 
 n175 19.3536 0.02950912496 P-Residential 
 n176 27.7038 0.0304932995 P-Residential 
 n177 19.3479 0.04510230526000001 P-Residential 
 n178 21.9026 0.0097556336 P-Residential 
 n179 19.4895 0.0 P-Residential 
 n180 22.7778 0.005591433620000001 P-Residential 
 n181 23.7049 0.036072233020000004 P-Residential 
 n182 25.085 0.045165916880000004 P-Residential 
 n183 19.3859 0.03998837546 P-Residential 
 n184 27.2441 0.01406289028 P-Residential 
 n185 19.0789 0.042788953420000005 P-Residential 
 n186 21.8196 0.03223192452 P-Residential 
 n187 19.0349 0.005950880940000001 P-Residential 
 n188 18.8768 0.00010388972 P-Residential ; PRESSURE SENSOR 
 n189 18.6826 0.034711944360000004 P-Residential 
 n190 19.6529 0.0160529062 P-Residential 
 n191 27.4799 0.09299352172000001 P-Residential 
 n192 22.206 0.07118001388 P-Residential 
 n193 19.7041 0.0072745026400000004 P-Residential 
 n194 19.7601 0.00586338024 P-Residential 
 n195 16.8285 0.02695743788 P-Residential 
 n196 19.8226 0.022057676460000005 P-Residential 
 n197 16.5799 0.0 P-Residential 
 n198 22.8492 0.0 P-Residential 
 n199 16.5475 0.04240950594 P-Residential 
 n200 18.2407 0.036678348980000004 P-Residential 
 n201 19.106 0.017812920280000002 P-Residential 
 n202 17.9436 0.007434226140000001 P-Residential 
 n203 22.0332 0.054437935500000006 P-Residential 
 n204 16.436 0.019318487880000002 P-Residential 
 n205 6.9791 0.0 P-Residential 
 n206 7.9123 0.0 P-Residential 
 n207 2.0579 0.0 P-Residential 
 n208 5.9061 0.0 P-Residential 
 n209 4.6117 0.0 P-Residential 
 n210 2.7477 0.0 P-Residential 
 n211 4.8451 0.0 P-Residential 
 n212 2.3488 0.0 P-Residential 
 n213 3.2427 0.0 P-Residential 
 n214 16.8316 0.00263446552 P-Residential 
 n215 2.0066 0.0 P-Residential ; PRESSURE SENSOR 
 n216 2.4091 0.0 P-Residential 
 n217 1.8712 0.0 P-Residential 
 n218 29.6006 0.03803169314 P-Residential 
 n219 28.4518 0.03169386466 P-Residential 
 n220 30.7523 0.04959734122000001 P-Residential 
 n221 28.2232 0.02477214262 P-Residential 
 n222 28.0585 0.00227946268 P-Residential 
 n223 28.5629 0.01170676032 P-Residential 
 n224 26.9114 0.03286442958 P-Residential 
 n225 25.5 0.05252069794 P-Residential 
 n226 6.113 0.0 P-Residential 
 n227 5.7901 0.0 P-Residential 
 n228 27.3852 0.030914136200000004 P-Residential 
 n229 21.5781 0.05278181114 P-Residential ; PRESSURE SENSOR 
 n230 28.3962 0.01063980734 P-Residential 
 n231 4.8639 0.0 P-Residential 
 n232 26.0377 0.011992318160000001 P-Residential 
 n233 4.4157 0.0 P-Residential 
 n234 5.1036 0.025491592820000002 P-Residential 
 n235 24.1047 0.07192307538 P-Residential 
 n236 3.0871 0.0 P-Residential 
 n237 4.0834 0.03317609874 P-Residential 
 n238 24.6076 0.0871659751 P-Residential 
 n239 22.9677 0.06321495016 P-Residential 
 n240 28.8065 0.052587920700000006 P-Residential 
 n241 22.1953 0.05381848610000001 P-Residential 
 n242 2.3582 0.0 P-Residential 
 n243 2.6564 0.0 P-Residential 
 n244 21.2523 0.15026342432 P-Residential 
 n245 28.661 0.027458553 P-Residential 
 n246 1.9044 0.0 P-Residential 
 n247 2.117 0.0 P-Residential 
 n248 29.31 0.04543703016 P-Residential 
 n249 28.5347 0.012258153620000002 P-Residential 
 n250 28.414 0.026330488420000003 P-Residential 
 n251 21.3004 0.04932595016000001 P-Residential 
 n252 24.7044 0.039021701060000004 P-Residential 
 n253 2.2871 0.05719240198 P-Residential 
 n254 2.2175 0.00090639614 P-Residential 
 n255 20.9378 0.00021555728000000003 P-Residential 
 n256 17.777 0.07045861922 P-Residential 
 n257 28.3219 0.013723443120000003 P-Residential 
 n258 24.7483 0.013617331160000003 P-Residential 
 n259 24.601 0.0 P-Residential 
 n260 17.7457 0.032150257200000004 P-Residential 
 n261 16.7006 0.03743474392 P-Residential 
 n262 24.2606 0.05711351246000001 P-Residential 
 n263 24.6696 0.029251067340000002 P-Residential 
 n264 20.6282 0.0 P-Residential 
 n265 28.4319 0.00903173892 P-Residential 
 n266 19.968 0.09453464516000001 P-Residential 
 n267 23.3745 0.035395283160000006 P-Residential 
 n268 21.9354 0.03214720162 P-Residential 
 n269 26.1653 0.028321059900000004 P-Residential 
 n270 20.8216 0.05416682222000001 P-Residential 
 n271 34.039 0.03707029656 P-Residential 
 n272 20.1368 0.03690112854 P-Residential 
 n273 24.5091 0.07023556188 P-Residential 
 n274 32.8648 0.0032511371200000007 P-Residential 
 n275 29.2533 0.024403528560000002 P-Residential 
 n276 21.3002 0.05429321212 P-Residential 
 n277 22.448 0.00484503876 P-Residential 
 n278 22.0132 0.0317266427 P-Residential 
 n279 21.7544 0.023220463540000003 P-Residential 
 n280 29.6042 0.031238027680000002 P-Residential 
 n281 31.2675 0.035252782020000005 P-Residential 
 n282 30.4949 0.04038948978 P-Residential 
 n283 27.4233 0.037134463740000005 P-Residential 
 n284 26.3666 0.04874816776000001 P-Residential 
 n285 20.4612 0.05537710968000001 P-Residential 
 n286 29.0388 0.06629580814000001 P-Residential 
 n287 33.0444 0.0 P-Residential 
 n288 21.6218 0.00376336344 P-Residential ; PRESSURE SENSOR 
 n289 27.4463 0.013006215160000003 P-Residential 
 n290 24.6247 0.041328663960000005 P-Residential 
 n291 32.4985 0.044066463640000005 P-Residential 
 n292 31.9495 0.0227404597 P-Residential 
 n293 26.5282 0.050282902260000005 P-Residential 
 n294 26.5192 0.010965087720000002 P-Residential 
 n295 30.8274 0.036456124980000004 P-Residential 
 n296 32.1966 0.027866334040000003 P-Residential ; PRESSURE SENSOR 
 n297 23.3934 0.055760446080000005 P-Residential 
 n298 34.8909 0.0 P-Residential 
 n299 26.7205 0.054989884360000005 P-Residential 
 n300 35.0 0.0 P-Residential 
 n301 23.52 0.020090438500000002 P-Residential 
 n302 23.3123 0.04829955306000001 P-Residential 
 n303 34.4994 0.0 P-Residential 
 n304 32.978 0.03153803008 P-Residential 
 n305 25.4869 0.06427329196 P-Residential 
 n306 23.6839 0.06807415570000001 P-Residential 
 n307 31.4204 0.04270700832 P-Residential 
 n308 23.3861 0.024231582740000004 P-Residential 
 n309 23.1678 0.07188557508000001 P-Residential 
 n310 22.36 0.038518641480000004 P-Residential 
 n311 29.5998 0.00515448568 P-Residential 
 n312 22.0779 0.03398443854 P-Residential 
 n313 21.7616 0.04558619802 P-Residential 
 n314 29.6902 0.021506283160000004 P-Residential 
 n315 22.7969 0.035819453220000005 P-Residential 
 n316 29.3551 0.03372054754000001 P-Residential 
 n317 22.2884 0.023047128820000002 P-Residential 
 n318 23.5639 0.04369757180000001 P-Residential 
 n319 30.4617 0.015579291300000003 P-Residential 
 n320 28.2142 0.028770230160000004 P-Residential 
 n321 21.897 0.028068835660000003 P-Residential 
 n322 26.9371 0.0 P-Residential 
 n323 26.0702 0.05798463054000001 P-Residential 
 n324 24.9686 0.0036980851400000006 P-Residential 
 n325 24.3047 0.05671989820000001 P-Residential 
 n326 23.6854 0.05597183666000001 P-Residential 
 n327 22.2849 0.06494385288000001 P-Residential 
 n328 22.1954 0.014114557360000002 P-Residential 
 n329 24.3743 0.0020916834 P-Residential 
 n330 22.0274 0.022545458140000002 P-Residential 
 n331 22.9257 0.009065072520000002 P-Residential 
 n332 18.0 0.0014983453200000003 P-Residential ; PRESSURE SENSOR 
 n333 18.0 0.01147675848 P-Residential 
 n334 18.0 0.01990404812 P-Residential 
 n335 27.45 0.039567260980000005 P-Residential 
 n336 26.0 0.09168462236000001 P-Residential 
 n337 4.1 0.0 P-Residential 
 n338 28.2 0.0 P-Residential 
 n339 22.8 0.0598602011 P-Residential 
 n340 30.1 0.13309023138 P-Residential 
 n341 22.8 0.0006302828200000001 P-Residential 
 n342 27.36 0.0 P-Residential ; PRESSURE SENSOR 
 n390 38.164 0.03337471144 P-Residential 
 n391 37.6252 0.031165804880000005 P-Residential 
 n392 37.0865 0.02017543918 P-Residential 
 n393 38.8775 0.018877651020000004 P-Residential 
 n394 39.0521 0.022450457380000004 P-Residential 
 n395 39.2268 0.02474964244 P-Residential 
 n396 39.4015 0.012798157940000002 P-Residential 
 n397 39.5761 0.04020532164000001 P-Residential 
 n398 39.7508 0.047504824480000006 P-Residential 
 n399 39.9254 0.0007536171400000001 P-Residential 
 n400 40.257 0.03312609834 P-Residential 
 n401 40.4005 0.07868507392000001 P-Residential 
 n402 41.2645 0.08379039254000001 P-Residential 
 n403 42.4154 0.0857840196 P-Residential 
 n404 43.5664 0.05529822016000001 P-Residential 
 n405 34.7226 0.04461730138000001 P-Residential 
 n406 29.9762 0.03681585008 P-Residential 
 n407 31.6562 0.048252330460000006 P-Residential 
 n408 36.3159 0.08528012668000001 P-Residential 
 n409 42.1242 0.01238232128 P-Residential 
 n410 42.8344 0.01822847916 P-Residential ; PRESSURE SENSOR 
 n411 41.9643 0.07065139854000001 P-Residential 
 n412 32.6351 0.07024889532 P-Residential 
 n413 32.5684 0.015330122640000002 P-Residential 
 n414 34.4274 0.048323442140000006 P-Residential 
 n415 28.5315 0.11908206376000002 P-Residential ; PRESSURE SENSOR 
 n416 40.7274 0.01828097958 P-Residential 
 n417 40.9109 0.03784752500000001 P-Residential 
 n418 35.4624 0.00542587674 P-Residential 
 n419 34.9649 0.00811784272 P-Residential 
 n420 37.454 0.03350804584 P-Residential 
 n421 37.9009 0.0172876383 P-Residential 
 n422 38.3478 0.03954281634000001 P-Residential 
 n423 38.7946 0.10558084464 P-Residential 
 n424 39.2415 0.015379845260000002 P-Residential 
 n425 34.3122 0.0362961237 P-Residential 
 n426 33.7011 0.029343012520000003 P-Residential 
 n427 36.5315 0.02730132952 P-Residential 
 n428 36.8386 0.02384935746 P-Residential 
 n429 37.1457 0.0008586179800000001 P-Residential ; PRESSURE SENSOR 
 n430 37.4527 0.0374891888 P-Residential 
 n431 37.7598 0.0048583722 P-Residential 
 n432 38.0669 0.03638417996 P-Residential 
 n433 38.374 0.07845368318 P-Residential 
 n434 40.5972 0.09441797756 P-Residential 
 n435 28.8164 0.059289085420000005 P-Residential 
 n436 34.2205 0.023031295360000002 P-Residential 
 n437 32.5424 0.01160537062 P-Residential 
 n438 39.8942 0.03603889942 P-Residential 
 n439 30.7936 0.0379822483 P-Residential 
 n440 34.2919 0.014416504220000001 P-Residential 
 n441 34.6102 0.03443555326 P-Residential 
 n442 34.9284 0.0 P-Residential 
 n443 29.0953 0.027827167060000005 P-Residential 
 n444 28.9522 0.04091032728 P-Residential 
 n445 28.2603 0.021706562540000002 P-Residential 
 n446 31.218 0.05854880172 P-Residential 
 n447 31.4091 0.054844605420000005 P-Residential 
 n448 31.6002 0.016892912920000003 P-Residential 
 n449 39.1847 0.04389507338 P-Residential 
 n450 35.9868 0.03629167922 P-Residential 
 n451 36.1911 0.07353836608000001 P-Residential 
 n452 29.8032 0.032402203660000004 P-Residential 
 n453 30.7973 0.07586560692000001 P-Residential 
 n454 34.0772 0.09486520336000001 P-Residential 
 n455 32.9079 0.04262311876 P-Residential 
 n456 31.7385 0.04173422276 P-Residential 
 n457 30.5692 0.06712998148 P-Residential 
 n458 30.598 0.0211335024 P-Residential ; PRESSURE SENSOR 
 n459 29.4047 0.03233553646 P-Residential 
 n460 28.2114 0.07766562132000002 P-Residential 
 n461 34.297 0.12669656912000002 P-Residential 
 n462 32.1985 0.06654719904 P-Residential 
 n463 28.8609 0.0 P-Residential 
 n464 28.3219 0.0 P-Residential 
 n465 27.783 0.04099810576000001 P-Residential 
 n466 28.7199 0.030576355720000004 P-Residential 
 n467 28.0399 0.0 P-Residential 
 n468 26.5418 0.03721668662 P-Residential 
 n469 26.9995 0.0 P-Residential ; PRESSURE SENSOR 
 n470 26.4802 0.045707865660000006 P-Residential 
 n471 25.9609 0.07766395464 P-Residential 
 n472 24.817 0.04798538388000001 P-Residential 
 n473 24.1747 0.13702637398 P-Residential 
 n474 26.1391 0.0029022454400000003 P-Residential 
 n475 26.0878 0.05216402842000001 P-Residential 
 n476 24.9631 0.06196299570000001 P-Residential 
 n477 24.8609 0.019959881900000004 P-Residential 
 n478 22.8701 0.00010083414 P-Residential 
 n479 22.3924 0.0 P-Residential 
 n480 21.9146 0.12948881368 P-Residential 
 n481 21.4369 0.0 P-Residential 
 n482 24.3157 0.03263109438 P-Residential 
 n483 24.5439 0.13230772512000002 P-Residential 
 n484 22.6375 0.034258885180000004 P-Residential 
 n485 21.7743 0.0030083574000000003 P-Residential 
 n486 19.458 0.04167061114000001 P-Residential 
 n487 19.9531 0.053663484860000006 P-Residential 
 n488 22.7713 0.04479702504 P-Residential 
 n489 22.0441 0.10952893178000002 P-Residential 
 n490 21.317 0.0 P-Residential 
 n491 23.0928 0.02797966828 P-Residential 
 n492 22.916 0.04212783702 P-Residential 
 n493 22.2249 0.0099042459 P-Residential 
 n494 23.2411 0.022812960280000003 P-Residential 
 n495 22.9645 0.039967541960000005 P-Residential ; PRESSURE SENSOR 
 n496 25.3653 0.09993718838000001 P-Residential 
 n497 23.7693 0.12827047060000002 P-Residential 
 n498 26.4312 0.08693875106000001 P-Residential 
 n499 19.6041 0.0973035562 P-Residential 
 n500 22.0404 0.010599251460000002 P-Residential 
 n501 21.4607 0.02911662182 P-Residential 
 n502 20.881 0.035708896780000006 P-Residential 
 n503 19.2577 0.07748423098000001 P-Residential 
 n504 20.9964 0.0093375747 P-Residential 
 n505 19.4982 0.00948674256 P-Residential 
 n506 20.955 0.027462164140000005 P-Residential ; PRESSURE SENSOR 
 n507 20.9532 0.025297702380000002 P-Residential 
 n508 20.3725 0.02713855044 P-Residential 
 n509 19.7919 0.0210723908 P-Residential 
 n510 21.1001 0.00159529054 P-Residential 
 n511 19.55 0.04940289522000001 P-Residential 
 n512 20.1304 0.049937343940000004 P-Residential 
 n513 19.6708 0.00522948628 P-Residential 
 n514 19.291 0.0 P-Residential 
 n515 19.4151 0.0 P-Residential 
 n516 19.5392 0.0 P-Residential ; PRESSURE SENSOR 
 n517 20.7313 0.07872674092000001 P-Residential 
 n518 19.3656 0.13498746878 P-Residential 
 n519 26.6257 0.08372400312000002 P-Residential ; PRESSURE SENSOR 
 n520 24.9757 0.10059302696000001 P-Residential 
 n521 24.0505 0.1504928706 P-Residential 
 n522 21.5056 0.03360526884 P-Residential 
 n523 20.0309 0.08879737704000001 P-Residential 
 n524 20.3387 0.0551796081 P-Residential 
 n525 21.4862 0.24149165414 P-Residential 
 n526 19.4866 0.0 P-Residential 
 n527 19.31 0.07289808318000002 P-Residential 
 n528 25.7956 0.03267609474 P-Residential 
 n529 24.2409 0.29182483458 P-Residential 
 n530 19.3787 0.025930763000000003 P-Residential 
 n531 19.7982 0.029547180820000005 P-Residential 
 n532 20.9125 0.015437901280000001 P-Residential 
 n533 20.4687 0.08884932190000001 P-Residential 
 n534 25.5403 0.05191597088000001 P-Residential 
 n535 24.1334 0.012685657040000001 P-Residential 
 n536 22.7266 0.04469424644000001 P-Residential 
 n537 22.2569 0.02702438286 P-Residential 
 n538 19.0738 0.00010194526 P-Residential 
 n539 20.698 0.0627393908 P-Residential 
 n540 18.9223 0.06459523898000001 P-Residential 
 n541 19.1791 0.009368963840000001 P-Residential 
 n542 24.7933 0.035447228020000006 P-Residential 
 n543 23.2015 0.00100750806 P-Residential 
 n544 20.1273 0.09997107754000001 P-Residential 
 n545 19.7594 0.028339393380000005 P-Residential 
 n546 19.7716 0.00795117472 P-Residential 
 n547 19.7837 0.03172580936 P-Residential 
 n548 19.7959 0.09851328810000001 P-Residential 
 n549 19.5515 0.03450944274 P-Residential ; PRESSURE SENSOR 
 n550 19.3558 0.03140330678 P-Residential 
 n551 25.5173 0.21184113916000002 P-Residential 
 n552 24.0293 0.020897667180000003 P-Residential 
 n553 19.9928 0.05177735866000001 P-Residential 
 n554 19.7778 0.01206620764 P-Residential 
 n555 19.5629 0.022330456420000002 P-Residential 
 n556 20.8791 0.016412353520000002 P-Residential 
 n557 25.1034 0.00383280844 P-Residential 
 n558 20.1175 0.01999849332 P-Residential 
 n559 19.9605 0.01711152578 P-Residential 
 n560 19.8035 0.0059494920400000005 P-Residential 
 n561 19.6465 0.19137347542000002 P-Residential 
 n562 19.4841 0.07597894116000001 P-Residential 
 n563 20.0358 0.012383710180000002 P-Residential 
 n564 19.7966 0.07137834880000002 P-Residential 
 n565 19.5573 0.008907015700000001 P-Residential 
 n566 19.3181 0.0043514237 P-Residential 
 n567 25.3129 0.01925376514 P-Residential 
 n568 23.6078 0.10859225762000002 P-Residential 
 n569 20.2607 0.018364869140000004 P-Residential 
 n570 19.9147 0.06561802494 P-Residential 
 n571 19.5688 0.015099843020000002 P-Residential 
 n572 19.2228 0.026559379140000002 P-Residential 
 n573 20.5842 0.09133017508000002 P-Residential 
 n574 20.1088 0.006740887260000001 P-Residential 
 n575 19.6334 0.0 P-Residential 
 n576 19.158 0.13372023642000003 P-Residential 
 n577 25.7043 0.020161272400000003 P-Residential 
 n578 27.4739 0.03350943474 P-Residential 
 n579 26.1646 0.042517840140000006 P-Residential 
 n580 20.7618 0.013836777360000002 P-Residential 
 n581 18.2994 0.0322016465 P-Residential 
 n582 17.564 0.024380750600000004 P-Residential 
 n583 26.3222 0.0004063921400000001 P-Residential 
 n584 25.1646 0.036015565900000004 P-Residential 
 n585 24.0069 0.038746698860000005 P-Residential 
 n586 24.9275 0.03777557998 P-Residential 
 n587 22.375 0.03479333390000001 P-Residential 
 n588 20.983 0.03884531076 P-Residential 
 n589 18.7 0.0 P-Residential 
 n590 17.64 0.0 P-Residential 
 n591 16.7042 0.006314217180000001 P-Residential 
 n592 19.1676 0.00590588058 P-Residential 
 n593 18.5126 0.015144010040000001 P-Residential 
 n594 17.8575 0.03499027992 P-Residential 
 n595 17.2025 0.03652779222000001 P-Residential 
 n596 19.4271 0.0 P-Residential 
 n597 19.0316 0.00098528566 P-Residential 
 n598 18.6362 0.0058722692 P-Residential 
 n599 22.6452 0.11073560810000002 P-Residential 
 n600 22.4412 0.035501950680000005 P-Residential 
 n601 22.2372 0.042723397340000004 P-Residential 
 n602 21.313 0.10284693388000002 P-Residential 
 n603 19.7769 0.0 P-Residential 
 n604 16.5252 0.0018261257200000002 P-Residential 
 n605 16.5029 0.0 P-Residential 
 n606 16.4806 0.005872824760000001 P-Residential 
 n607 16.4583 0.0 P-Residential 
 n608 16.7894 0.0 P-Residential 
 n609 17.0313 0.0 P-Residential 
 n610 17.2732 0.0028547450600000003 P-Residential 
 n611 17.515 0.0 P-Residential 
 n612 17.7569 0.0007308391800000001 P-Residential 
 n613 17.9988 0.00414364426 P-Residential ; PRESSURE SENSOR 
 n614 18.6734 0.08482067856000002 P-Residential 
 n615 17.7895 0.0009469520200000002 P-Residential 
 n616 17.3383 0.004370590520000001 P-Residential 
 n617 16.8872 0.0038061415600000007 P-Residential 
 n618 20.5696 0.011342312960000002 P-Residential 
 n619 17.6656 0.0005502821800000001 P-Residential 
 n620 17.3876 0.0 P-Residential 
 n621 17.1096 0.0 P-Residential 
 n622 16.6338 0.00066222752 P-Residential 
 n623 7.0127 0.0 P-Residential 
 n624 2.4028 0.0 P-Residential 
 n625 5.003 0.0 P-Residential 
 n626 4.6304 0.0 P-Residential 
 n627 30.1764 0.0848076229 P-Residential 
 n628 28.8837 0.0691755534 P-Residential 
 n629 28.1669 0.046485927440000005 P-Residential 
 n630 28.2551 0.056116560040000006 P-Residential 
 n631 28.3259 0.021454616080000002 P-Residential 
 n632 30.3596 0.0503392916 P-Residential 
 n633 29.9669 0.023759078960000003 P-Residential 
 n634 29.5743 0.15465345944000003 P-Residential 
 n635 29.1816 0.06624080770000002 P-Residential 
 n636 28.7889 0.0018233479200000003 P-Residential ; PRESSURE SENSOR 
 n637 26.9784 0.021670728920000003 P-Residential 
 n638 25.8984 0.02322296356 P-Residential 
 n639 24.8183 0.021789896540000003 P-Residential 
 n640 23.7382 0.020936000820000005 P-Residential 
 n641 22.6582 0.059195751340000005 P-Residential 
 n642 27.9316 0.029033287820000003 P-Residential 
 n643 27.3003 0.03761891206 P-Residential 
 n644 26.669 0.03055774446 P-Residential ; PRESSURE SENSOR 
 n645 28.3274 0.004091421620000001 P-Residential 
 n646 28.0918 0.035949454260000006 P-Residential 
 n647 27.8563 0.030671078700000003 P-Residential 
 n648 27.6207 0.015421234480000002 P-Residential 
 n649 26.2097 0.043112289340000005 P-Residential 
 n650 25.508 0.031006359160000004 P-Residential 
 n651 24.8064 0.041086162020000004 P-Residential 
 n652 26.2057 0.04782371592000001 P-Residential 
 n653 24.6559 0.011506480940000001 P-Residential 
 n654 23.8118 0.035162225740000004 P-Residential 
 n655 24.6738 0.05287903414 P-Residential 
 n656 23.8476 0.02824994822 P-Residential 
 n657 23.0215 0.13322606580000002 P-Residential 
 n658 28.0958 0.05463265928 P-Residential 
 n659 28.7008 0.055832668880000005 P-Residential 
 n660 29.0054 0.09952357396 P-Residential 
 n661 27.781 0.0694408333 P-Residential 
 n662 26.7555 0.06516552132 P-Residential 
 n663 25.7299 0.017369027840000002 P-Residential 
 n664 27.6828 0.04757760284000001 P-Residential 
 n665 26.7047 0.05489016134000001 P-Residential 
 n666 25.7265 0.0510906865 P-Residential 
 n667 2.061 0.00258390956 P-Residential 
 n668 30.0982 0.08961682804000001 P-Residential 
 n669 30.8863 0.06169966026000001 P-Residential 
 n670 31.6745 0.04115755148 P-Residential 
 n671 32.4627 0.0690922194 P-Residential 
 n672 33.2508 0.05374292994000001 P-Residential 
 n673 20.4117 0.015989016800000002 P-Residential 
 n674 19.523 0.059216029280000006 P-Residential 
 n675 18.6344 0.01135092414 P-Residential 
 n676 22.8211 0.1440678192 P-Residential 
 n677 20.783 0.01419233576 P-Residential 
 n678 28.3769 0.028721063100000003 P-Residential 
 n679 27.1045 0.056235727660000005 P-Residential ; PRESSURE SENSOR 
 n680 25.887 0.06375995452000001 P-Residential 
 n681 17.846 0.03798169274 P-Residential 
 n682 18.9914 0.05061818272 P-Residential 
 n683 22.4444 0.17967477072000002 P-Residential 
 n684 25.358 0.03159969724 P-Residential 
 n685 26.0464 0.012720379540000002 P-Residential 
 n686 26.7349 0.058222132440000005 P-Residential 
 n687 20.3948 0.0268766039 P-Residential 
 n688 20.9906 0.057815462520000006 P-Residential 
 n689 26.2324 0.01846070324 P-Residential 
 n690 26.2995 0.020730721400000002 P-Residential 
 n691 20.4792 0.02323824146 P-Residential 
 n692 34.181 0.08030286464000001 P-Residential 
 n693 34.323 0.06927777644000001 P-Residential 
 n694 34.465 0.07619005396000002 P-Residential 
 n695 34.6069 0.07654589014 P-Residential 
 n696 34.7489 0.026482156300000004 P-Residential 
 n697 20.2449 0.04630620378 P-Residential 
 n698 20.3531 0.07980174952 P-Residential 
 n699 24.5476 0.04059588032 P-Residential 
 n700 24.5862 0.03869308732000001 P-Residential 
 n701 32.9247 0.04080088196000001 P-Residential 
 n702 32.9845 0.056929344320000005 P-Residential 
 n703 22.9922 0.012049818620000001 P-Residential 
 n704 23.5364 0.026381877720000002 P-Residential 
 n705 24.0805 0.08182954352 P-Residential 
 n706 21.6881 0.013147049620000002 P-Residential 
 n707 21.1078 0.023187129940000002 P-Residential 
 n708 31.0475 0.0412447744 P-Residential 
 n709 30.3159 0.01329010632 P-Residential 
 n710 30.1369 0.0049736509 P-Residential 
 n711 29.9578 0.00215029498 P-Residential 
 n712 29.7788 0.06233883204000001 P-Residential 
 n713 20.6779 0.03280887358 P-Residential 
 n714 20.8947 0.02976357144 P-Residential 
 n715 21.1114 0.0009897301400000002 P-Residential 
 n716 21.3281 0.04380340598 P-Residential 
 n717 21.5449 0.00227696266 P-Residential 
 n718 28.921 0.049931788340000005 P-Residential 
 n719 28.8032 0.08566512976000001 P-Residential 
 n720 28.6854 0.06561469158000001 P-Residential 
 n721 28.5676 0.014124557440000001 P-Residential 
 n722 28.4498 0.04136199756000001 P-Residential ; PRESSURE SENSOR 
 n723 28.332 0.05211180578 P-Residential 
 n724 33.0223 0.05567905654000001 P-Residential 
 n725 33.0001 0.04204894750000001 P-Residential 
 n726 27.3736 0.01618735172 P-Residential ; PRESSURE SENSOR 
 n727 27.3008 0.0327155395 P-Residential 
 n728 27.2281 0.01800792184 P-Residential 
 n729 27.1553 0.056964066820000006 P-Residential 
 n730 27.0826 0.05478182714 P-Residential 
 n731 27.0098 0.046508983180000005 P-Residential 
 n732 26.6199 0.04938956178 P-Residential 
 n733 25.5195 0.043032566480000006 P-Residential 
 n734 24.5197 0.07291725000000002 P-Residential 
 n735 31.0251 0.029322734580000002 P-Residential 
 n736 31.2227 0.045209250560000004 P-Residential 
 n737 32.5873 0.04205728090000001 P-Residential 
 n738 33.5907 0.024729642280000002 P-Residential 
 n739 32.2906 0.04913372640000001 P-Residential 
 n740 30.9904 0.053696818460000004 P-Residential ; PRESSURE SENSOR 
 n741 26.6121 0.03793252568000001 P-Residential 